 7C C6 CE DE F6 E6 7C 00 // 0
 30 70 30 30 30 30 30 00 // 1
 78 CC 0C 38 60 C0 FC 00 // 2
 78 CC 0C 38 0C CC 78 00 // 3
 1C 3C 6C CC FE 0C 0C 00 // 4
 FC C0 F8 0C 0C CC 78 00 // 5
 38 60 C0 F8 CC CC 78 00 // 6
 FC 0C 0C 18 30 30 30 00 // 7
 78 CC CC 78 CC CC 78 00 // 8
 78 CC CC 7C 0C 18 70 00 // 9
 00 00 00 7E 7E 00 00 00 // -
 06 0C 18 30 60 C0 80 00 // /
 80 E0 F8 FE F8 E0 80 00 // Play
 66 66 66 66 66 66 00 00 // Pause
 7E 7E 7E 7E 7E 7E 00 00 // Stop
 1B 36 6C D8 6C 36 1B 00 // Rewind
 D8 6C 36 1B 36 6C D8 00 // Fast Forward
 1B 3B 7B FB 7B 3B 1B 00 // Previous
 D8 DC DE DF DE DC D8 00 // Next
 C3 C7 CF DF CF C7 C3 00 // Beginning of Tape
 C3 E3 F3 FB F3 E3 C3 00 // End of Tape
 00 3C 7E 7E 7E 7E 3C 00 // Record
 00 08 1C 3E 7F 00 7F 00 // Eject
 3C 7E 66 06 FF FF FF FF // Unlocked
 3C 7E 66 66 FF FF FF FF // Locked
